Circuit: * C:\Users\Utente\Desktop\UNI_2023_2024\Term 2\Analogue Labs 3\Draft2.asc

Direct Newton iteration for .op point succeeded.

Date: Tue Sep 10 22:17:47 2024
Total elapsed time: 0.106 seconds.

tnom = 27
temp = 27
method = modified trap
totiter = 2085
traniter = 2082
tranpoints = 1042
accept = 1042
rejected = 0
matrix size = 3
fillins = 1
solver = Normal
Avg thread counts: 1.5/1.9/1.9/1.5
Matrix Compiler1:       6 opcodes  0.3/[0.3]/0.4
Matrix Compiler2: off  [0.1]/0.4/0.2

