Circuit: * C:\Users\Utente\Desktop\UNI_2023_2024\Term 2\Analogue Labs 3\stage-4-LM318-sullen-key.asc

Early termination of direct N-R iteration.
Direct Newton iteration failed to find .op point.  (Use ".option noopiter" to skip.)
Starting Gmin stepping
Gmin = 10
vernier = 0.5
vernier = 0.25
vernier = 0.125
Gmin = 4.96485
vernier = 0.0625
vernier = 0.03125
vernier = 0.015625
vernier = 0.0078125
vernier = 0.00390625
Gmin = 5.08031
vernier = 0.00195312
vernier = 0.000976562
vernier = 0.000488281
Gmin = 0
Gmin stepping failed

Starting source stepping with srcstepmethod=0
Source Step = 3.0303%
Source Step = 33.3333%
Source Step = 63.6364%
Source Step = 93.9394%
Source stepping succeeded in finding the operating point.


Date: Fri Mar  8 14:34:06 2024
Total elapsed time: 0.908 seconds.

tnom = 27
temp = 27
method = trap
totiter = 1749
traniter = 0
tranpoints = 0
accept = 0
rejected = 0
matrix size = 290
fillins = 775
solver = Normal
Avg thread counts: 1.5/0.0/12.0/1.5
Matrix Compiler1:    2885 opcodes
Matrix Compiler2: 37.48 KB object code size  4.3/5.8/[4.3]

