Circuit: * C:\Users\Utente\Desktop\UNI_2023_2024\Term 2\Analogue Labs 3\Draft1.asc

Model "n": Oxide thickness thinner than recommended for a level 1 MOSFET.
vds: Missing value, assumed 0V @ DC
vgs: Missing value, assumed 0V @ DC
.OP point found by inspection.
.step vgs=0
.step vgs=0.5
.step vgs=1
.step vgs=1.5
.step vgs=2
.step vgs=2.5
.step vgs=3
.step vgs=3.5
.step vgs=4
.step vgs=4.5
.step vgs=5

Date: Fri Oct  4 14:15:09 2024
Total elapsed time: 0.042 seconds.

tnom = 27
temp = 27
method = trap
totiter = 1156
traniter = 0
tranpoints = 0
accept = 0
rejected = 0
matrix size = 4
fillins = 0
solver = Normal
Avg thread counts: 1.8/0.0/2.7/1.8
Matrix Compiler1:       7 opcodes  0.1/[0.1]/0.1
Matrix Compiler2: off  [0.0]/0.1/0.1

