Circuit: * C:\Users\Utente\Desktop\Analogue Labs 3\LM6171A.asc

Direct Newton iteration for .op point succeeded.

Date: Fri Jan 19 12:29:52 2024
Total elapsed time: 4.480 seconds.

tnom = 27
temp = 27
method = modified trap
totiter = 849675
traniter = 849639
tranpoints = 200327
accept = 150463
rejected = 49864
matrix size = 91
fillins = 136
solver = Normal
Avg thread counts: 1.0/1.0/1.0/1.0
Matrix Compiler1: 11.41 KB object code size  1.9/1.5/[0.6]
Matrix Compiler2: 9.74 KB object code size  1.0/1.2/[0.4]

