LTspice 24.1.9 for Windows
Circuit: C:\Users\Utente\Desktop\UNI_2023_2024\Term 2\Analogue Labs 3\stage-1-PowerProtection.net
Start Time: Sat Oct 25 21:57:23 2025
solver = Normal
Maximum thread count: 12
tnom = 27
temp = 27
method = modified trap
WARNING: Node n009 is floating.

.step 
Total elapsed time: 0.050 seconds.

Files loaded:
C:\Users\Utente\Desktop\UNI_2023_2024\Term 2\Analogue Labs 3\stage-1-PowerProtection.net
C:\Users\Utente\AppData\Local\LTspice\lib\cmp\standard.dio
C:\Users\Utente\AppData\Local\LTspice\lib\sub\opamp.sub

