Circuit: * C:\Users\Utente\Desktop\UNI_2023_2024\Term 2\Analogue Labs 3\stage-5-LM6171A-post-inverting-op-amp.asc

Direct Newton iteration for .op point succeeded.

Date: Sat Mar 30 01:46:13 2024
Total elapsed time: 0.052 seconds.

tnom = 27
temp = 27
method = trap
totiter = 50
traniter = 0
tranpoints = 0
accept = 0
rejected = 0
matrix size = 93
fillins = 125
solver = Normal
Avg thread counts: 12.0/0.0/12.0/8.0
Matrix Compiler1:     612 opcodes
Matrix Compiler2:     766 opcodes
