Circuit: * C:\Users\Utente\Desktop\UNI_2023_2024\Term 2\Analogue Labs 3\stage-3-HPF-DC-Blocker.asc

.OP point found by inspection.

Date: Mon Feb  5 14:13:37 2024
Total elapsed time: 0.028 seconds.

tnom = 27
temp = 27
method = trap
totiter = 0
traniter = 0
tranpoints = 0
accept = 0
rejected = 0
matrix size = 3
fillins = 0
solver = Normal
Avg thread counts: 12.0/0.0/0.0/12.0
Matrix Compiler1:       4 opcodes
Matrix Compiler2:      15 opcodes
