LTspice 24.1.9 for Windows
Circuit: C:\Users\Utente\Desktop\UNI_2023_2024\Term 2\Analogue Labs 3\stage-4-LM318-sullen-key - only.net
Start Time: Sat Oct 25 22:00:38 2025
solver = Normal
Maximum thread count: 12
tnom = 27
temp = 27
method = modified trap
Direct Newton iteration failed to find .op point.  (Use ".option noopiter" to skip.)
Starting Gmin stepping
Gmin = 10
Gmin = 1.07374
vernier = 0.5
vernier = 0.25
vernier = 0.125
Gmin = 1.02385
vernier = 0.0625
vernier = 0.03125
vernier = 0.015625
Gmin = 1.01955
vernier = 0.0078125
vernier = 0.00390625
Gmin = 1.01162
vernier = 0.00520833
vernier = 0.00260417
vernier = 0.00130208
Gmin = 1.00801
vernier = 0.00173611
vernier = 0.000868055
Gmin = 1.00593
vernier = 0.00115741
vernier = 0.000578703
vernier = 0.000771604
Gmin = 1.00452
vernier = 0.000578703
vernier = 0.000434027
Gmin = 1.00373
vernier = 0.000578703
vernier = 0.000434027
Gmin = 0
Gmin stepping failed

Starting source stepping with srcstepmethod=0
Source Step = 3.0303%
Source Step = 33.3333%
Source Step = 63.6364%
Source Step = 93.9394%
Source stepping succeeded in finding the operating point.

Total elapsed time: 0.678 seconds.

Files loaded:
C:\Users\Utente\Desktop\UNI_2023_2024\Term 2\Analogue Labs 3\stage-4-LM318-sullen-key - only.net
C:\Users\Utente\Desktop\UNI_2023_2024\Term 2\Analogue Labs 3\components\LM6171A.txt

